@<TRIPOS>MOLECULE
UNL
   10    10     1     0     0
SMALL
bcc


@<TRIPOS>ATOM
      1 C1          -1.4750     0.2710     0.2040 c3         1 UNL      -0.096300
      2 S1          -0.0490    -0.1190    -0.7430 s6         1 UNL       0.052800
      3 C2           1.4950     0.0660     0.1080 c3         1 UNL      -0.096300
      4 O1          -0.0860    -1.4720    -1.4140 os         1 UNL      -0.359400
      5 H1          -2.0860     1.0320    -0.3630 h1         1 UNL       0.083367
      6 H2          -1.2910     0.6220     1.2320 h1         1 UNL       0.083367
      7 H3          -2.1420    -0.6320     0.2490 h1         1 UNL       0.083367
      8 H4           1.6980    -0.8200     0.7540 h1         1 UNL       0.083367
      9 H5           1.6220     1.0120     0.6400 h1         1 UNL       0.083367
     10 H6           2.3140     0.0390    -0.6690 h1         1 UNL       0.083367
@<TRIPOS>BOND
     1     1     2 1   
     2     1     5 1   
     3     1     6 1   
     4     1     7 1   
     5     2     3 1   
     6     2     4 1   
     7     2     4 1   
     8     3     8 1   
     9     3     9 1   
    10     3    10 1   
@<TRIPOS>SUBSTRUCTURE
     1 UNL         1 TEMP              0 ****  ****    0 ROOT
