@<TRIPOS>MOLECULE
UNL
    8     7     1     0     0
SMALL
bcc


@<TRIPOS>ATOM
      1 C1          -0.7600    -0.0070    -0.0510 c3         1 UNL      -0.094100
      2 C2           0.7430    -0.0340     0.0030 c3         1 UNL      -0.094100
      3 H1          -1.1310    -0.1830     0.9860 hc         1 UNL       0.031700
      4 H2          -1.0730     1.0190    -0.3240 hc         1 UNL       0.031700
      5 H3          -1.2010    -0.7890    -0.6830 hc         1 UNL       0.031700
      6 H4           1.0540     0.9020     0.5470 hc         1 UNL       0.031700
      7 H5           1.2190     0.0220    -0.9870 hc         1 UNL       0.031700
      8 H6           1.1490    -0.9310     0.5080 hc         1 UNL       0.031700
@<TRIPOS>BOND
     1     1     2 1   
     2     1     3 1   
     3     1     4 1   
     4     1     5 1   
     5     2     6 1   
     6     2     7 1   
     7     2     8 1   
@<TRIPOS>SUBSTRUCTURE
     1 UNL         1 TEMP              0 ****  ****    0 ROOT
