@<TRIPOS>MOLECULE
UNL
   11    10     1     0     0
SMALL
bcc


@<TRIPOS>ATOM
      1 C1           1.2550     0.1130    -0.2320 c3         1 UNL      -0.093100
      2 C2           0.0240    -0.1980     0.5770 c3         1 UNL      -0.081400
      3 C3          -1.2570     0.0890    -0.1830 c3         1 UNL      -0.093100
      4 H1           1.6010     1.1540    -0.1240 hc         1 UNL       0.032367
      5 H2           2.0680    -0.5650     0.0880 hc         1 UNL       0.032367
      6 H3           1.0000    -0.0930    -1.2970 hc         1 UNL       0.032367
      7 H4           0.0400    -1.3050     0.7610 hc         1 UNL       0.036700
      8 H5           0.0190     0.2700     1.5740 hc         1 UNL       0.036700
      9 H6          -1.9810     0.5640     0.5110 hc         1 UNL       0.032367
     10 H7          -1.6840    -0.8290    -0.6500 hc         1 UNL       0.032367
     11 H8          -1.0850     0.8000    -1.0260 hc         1 UNL       0.032367
@<TRIPOS>BOND
     1     1     2 1   
     2     1     4 1   
     3     1     5 1   
     4     1     6 1   
     5     2     3 1   
     6     2     7 1   
     7     2     8 1   
     8     3     9 1   
     9     3    10 1   
    10     3    11 1   
@<TRIPOS>SUBSTRUCTURE
     1 UNL         1 TEMP              0 ****  ****    0 ROOT
